2_Simulation_with_lines_losses/ACN_Infrastructure_Curr_Elem.Txt

CIRCUIT ELEMENT CURRENTS

(Currents into element from indicated bus)

Power Delivery Elements

  Bus             Phase    Magnitude, A     Angle      (Real)   +j  (Imag)

ELEMENT = "Vsource.SOURCE"
UTILITY_COMPANY       1      7.8795E-006 /_   90.0 =  -3.2378E-010 +j 7.8795E-006
UTILITY_COMPANY       2      7.8795E-006 /_  -30.0 =  6.824E-006 +j -3.9395E-006
UTILITY_COMPANY       3      7.8795E-006 /_ -150.0 =  -6.8237E-006 +j -3.94E-006
------------
UTILITY_COMPANY       0      7.8795E-006 /_  -90.0 =  3.2378E-010 +j -7.8795E-006
UTILITY_COMPANY       0      7.8795E-006 /_  150.0 =  -6.824E-006 +j 3.9395E-006
UTILITY_COMPANY       0      7.8795E-006 /_   30.0 =  6.8237E-006 +j 3.94E-006

ELEMENT = "Line.LINE_0"
MAIN_SWITCH_PANEL     1       0.00020499 /_   90.0 =  4.2633E-012 +j 0.00020499
MAIN_SWITCH_PANEL     2       0.00020499 /_  -30.0 =  0.00017753 +j -0.00010249
MAIN_SWITCH_PANEL     3       0.00020499 /_ -150.0 =  -0.00017753 +j -0.00010249
------------
DCFC                  1      1.7288E-013 /_  170.5 =  -1.7053E-013 +j 2.8422E-014
DCFC                  2      3.5612E-013 /_  -28.6 =  3.1264E-013 +j -1.7053E-013
DCFC                  3      2.5421E-013 /_  -26.6 =  2.2737E-013 +j -1.1369E-013

ELEMENT = "Line.LINE_1"
SWITCH_PANEL_1        1       0.00071043 /_   60.0 =  0.00035522 +j 0.00061525
SWITCH_PANEL_1        2       0.00071043 /_  -60.0 =  0.00035521 +j -0.00061525
SWITCH_PANEL_1        3       0.00071043 /_  180.0 =  -0.00071043 +j 6.9187E-010
------------
1                     1       0.00062163 /_ -120.0 =  -0.00031081 +j -0.00053834
1                     2       0.00062163 /_  120.0 =  -0.00031081 +j 0.00053835
1                     3       0.00062163 /_    0.0 =  0.00062163 +j -6.6476E-010

ELEMENT = "Line.LINE_2"
SWITCH_PANEL_1        1       0.00071043 /_   60.0 =  0.00035522 +j 0.00061525
SWITCH_PANEL_1        2       0.00071043 /_  -60.0 =  0.00035521 +j -0.00061525
SWITCH_PANEL_1        3       0.00071043 /_  180.0 =  -0.00071043 +j 6.9193E-010
------------
9                     1       0.00062163 /_ -120.0 =  -0.00031081 +j -0.00053834
9                     2       0.00062163 /_  120.0 =  -0.00031081 +j 0.00053835
9                     3       0.00062163 /_    0.0 =  0.00062163 +j -6.6481E-010

ELEMENT = "Line.LINE_3"
SWITCH_PANEL_1        1        0.0034634 /_   60.0 =  0.0017317 +j 0.0029994
SWITCH_PANEL_1        2        0.0034634 /_  -60.0 =  0.0017317 +j -0.0029994
SWITCH_PANEL_1        3        0.0034634 /_  180.0 =  -0.0034634 +j 2.5112E-008
------------
2X19                  1        0.0033746 /_ -120.0 =  -0.0016873 +j -0.0029225
2X19                  2        0.0033746 /_  120.0 =  -0.0016873 +j 0.0029225
2X19                  3        0.0033746 /_    0.0 =  0.0033746 +j -2.4982E-008

ELEMENT = "Line.LINE_4"
1                     1      8.8804E-005 /_   60.0 =  4.4402E-005 +j 7.6906E-005
1                     2      8.8804E-005 /_  -60.0 =  4.4402E-005 +j -7.6906E-005
1                     3      8.8804E-005 /_  180.0 =  -8.8804E-005 +j 5.3518E-011
------------
2                     1      1.4211E-014 /_   90.0 =          0 +j 1.4211E-014
2                     2      1.3575E-013 /_   42.9 =  9.9476E-014 +j 9.2371E-014
2                     3      1.1369E-013 /_  180.0 =  -1.1369E-013 +j         0

ELEMENT = "Line.LINE_5"
1                     1       0.00053282 /_   60.0 =  0.00026641 +j 0.00046144
1                     2       0.00053282 /_  -60.0 =  0.00026641 +j -0.00046144
1                     3       0.00053282 /_  180.0 =  -0.00053282 +j 6.1144E-010
------------
3                     1       0.00044402 /_ -120.0 =  -0.00022201 +j -0.00038453
3                     2       0.00044402 /_  120.0 =  -0.00022201 +j 0.00038453
3                     3       0.00044402 /_    0.0 =  0.00044402 +j -5.4138E-010

ELEMENT = "Line.LINE_6"
3                     1       0.00035522 /_   60.0 =  0.00017761 +j 0.00030763
3                     2       0.00035522 /_  -60.0 =  0.00017761 +j -0.00030763
3                     3       0.00035522 /_  180.0 =  -0.00035522 +j 4.5151E-010
------------
5                     1       0.00026641 /_ -120.0 =  -0.00013321 +j -0.00023072
5                     2       0.00026641 /_  120.0 =  -0.00013321 +j 0.00023072
5                     3       0.00026641 /_    0.0 =  0.00026641 +j -3.5178E-010

ELEMENT = "Line.LINE_7"
5                     1       0.00017761 /_   60.0 =  8.8804E-005 +j 0.00015381
5                     2       0.00017761 /_  -60.0 =  8.8804E-005 +j -0.00015381
5                     3       0.00017761 /_  180.0 =  -0.00017761 +j 2.39E-010
------------
7                     1      8.8804E-005 /_ -120.0 =  -4.4402E-005 +j -7.6906E-005
7                     2      8.8804E-005 /_  120.0 =  -4.4402E-005 +j 7.6907E-005
7                     3      8.8804E-005 /_    0.0 =  8.8804E-005 +j -1.2278E-010

ELEMENT = "Line.LINE_8"
3                     1      8.8804E-005 /_   60.0 =  4.4402E-005 +j 7.6906E-005
3                     2      8.8804E-005 /_  -60.0 =  4.4402E-005 +j -7.6906E-005
3                     3      8.8804E-005 /_  180.0 =  -8.8804E-005 +j 8.9756E-011
------------
4                     1      8.6441E-014 /_   99.5 =  -1.4211E-014 +j 8.5265E-014
4                     2      1.0346E-013 /_  -74.1 =  2.8422E-014 +j -9.9476E-014
4                     3      8.0389E-014 /_   45.0 =  5.6843E-014 +j 5.6843E-014

ELEMENT = "Line.LINE_9"
5                     1      8.8804E-005 /_   60.0 =  4.4402E-005 +j 7.6906E-005
5                     2      8.8804E-005 /_  -60.0 =  4.4402E-005 +j -7.6906E-005
5                     3      8.8804E-005 /_  180.0 =  -8.8804E-005 +j 1.1289E-010
------------
6                     1      3.1776E-014 /_  153.4 =  -2.8422E-014 +j 1.4211E-014
6                     2      8.6441E-014 /_  -99.5 =  -1.4211E-014 +j -8.5265E-014
6                     3      8.0389E-014 /_   45.0 =  5.6843E-014 +j 5.6843E-014

ELEMENT = "Line.LINE_10"
7                     1      8.8804E-005 /_   60.0 =  4.4402E-005 +j 7.6906E-005
7                     2      8.8804E-005 /_  -60.0 =  4.4402E-005 +j -7.6907E-005
7                     3      8.8804E-005 /_  180.0 =  -8.8804E-005 +j 1.2281E-010
------------
8                     1       1.519E-013 /_  100.8 =  -2.8422E-014 +j 1.4921E-013
8                     2      2.9296E-014 /_ -166.0 =  -2.8422E-014 +j -7.1054E-015
8                     3      6.3553E-014 /_  -26.6 =  5.6843E-014 +j -2.8422E-014

ELEMENT = "Line.LINE_11"
9                     1      8.8804E-005 /_   60.0 =  4.4402E-005 +j 7.6906E-005
9                     2      8.8804E-005 /_  -60.0 =  4.4402E-005 +j -7.6906E-005
9                     3      8.8804E-005 /_  180.0 =  -8.8804E-005 +j 5.3518E-011
------------
10                    1      1.9329E-013 /_  107.1 =  -5.6843E-014 +j 1.8474E-013
10                    2      8.6441E-014 /_   -9.5 =  8.5265E-014 +j -1.4211E-014
10                    3      5.6843E-014 /_  180.0 =  -5.6843E-014 +j         0

ELEMENT = "Line.LINE_12"
9                     1       0.00053282 /_   60.0 =  0.00026641 +j 0.00046144
9                     2       0.00053282 /_  -60.0 =  0.00026641 +j -0.00046144
9                     3       0.00053282 /_  180.0 =  -0.00053282 +j 6.1146E-010
------------
11                    1       0.00044402 /_ -120.0 =  -0.00022201 +j -0.00038453
11                    2       0.00044402 /_  120.0 =  -0.00022201 +j 0.00038453
11                    3       0.00044402 /_    0.0 =  0.00044402 +j -5.4143E-010

ELEMENT = "Line.LINE_13"
11                    1      8.8804E-005 /_   60.0 =  4.4402E-005 +j 7.6906E-005
11                    2      8.8804E-005 /_  -60.0 =  4.4402E-005 +j -7.6906E-005
11                    3      8.8804E-005 /_  180.0 =  -8.8804E-005 +j 8.9813E-011
------------
12                    1      3.1776E-014 /_  116.6 =  -1.4211E-014 +j 2.8422E-014
12                    2      8.3167E-014 /_  110.0 =  -2.8422E-014 +j 7.816E-014
12                    3      2.8422E-014 /_   90.0 =          0 +j 2.8422E-014

ELEMENT = "Line.LINE_14"
11                    1       0.00035522 /_   60.0 =  0.00017761 +j 0.00030763
11                    2       0.00035522 /_  -60.0 =  0.00017761 +j -0.00030763
11                    3       0.00035522 /_  180.0 =  -0.00035522 +j 4.5162E-010
------------
13                    1       0.00026641 /_ -120.0 =  -0.00013321 +j -0.00023072
13                    2       0.00026641 /_  120.0 =  -0.00013321 +j 0.00023072
13                    3       0.00026641 /_    0.0 =  0.00026641 +j -3.5189E-010

ELEMENT = "Line.LINE_15"
13                    1      8.8804E-005 /_   60.0 =  4.4402E-005 +j 7.6906E-005
13                    2      8.8804E-005 /_  -60.0 =  4.4402E-005 +j -7.6906E-005
13                    3      8.8804E-005 /_  180.0 =  -8.8804E-005 +j 1.1289E-010
------------
14                    1      1.3102E-013 /_ -167.5 =  -1.279E-013 +j -2.8422E-014
14                    2      4.4939E-014 /_   18.4 =  4.2633E-014 +j 1.4211E-014
14                    3      6.3553E-014 /_  153.4 =  -5.6843E-014 +j 2.8422E-014

ELEMENT = "Line.LINE_16"
13                    1       0.00017761 /_   60.0 =  8.8804E-005 +j 0.00015381
13                    2       0.00017761 /_  -60.0 =  8.8804E-005 +j -0.00015381
13                    3       0.00017761 /_  180.0 =  -0.00017761 +j 2.3894E-010
------------
15                    1      8.8804E-005 /_ -120.0 =  -4.4402E-005 +j -7.6906E-005
15                    2      8.8804E-005 /_  120.0 =  -4.4402E-005 +j 7.6907E-005
15                    3      8.8804E-005 /_    0.0 =  8.8804E-005 +j -1.2272E-010

ELEMENT = "Line.LINE_17"
15                    1      8.8804E-005 /_   60.0 =  4.4402E-005 +j 7.6906E-005
15                    2      8.8804E-005 /_  -60.0 =  4.4402E-005 +j -7.6907E-005
15                    3      8.8804E-005 /_  180.0 =  -8.8804E-005 +j 1.2281E-010
------------
16                    1      4.0194E-014 /_  -45.0 =  2.8422E-014 +j -2.8422E-014
16                    2      1.3102E-013 /_   12.5 =  1.279E-013 +j 2.8422E-014
16                    3      6.3553E-014 /_  153.4 =  -5.6843E-014 +j 2.8422E-014

ELEMENT = "Line.LINE_18"
2X19                  1        0.0016873 /_   60.0 =  0.00084366 +j 0.0014612
2X19                  2        0.0016873 /_  -60.0 =  0.00084364 +j -0.0014613
2X19                  3        0.0016873 /_  180.0 =  -0.0016873 +j 1.5165E-008
------------
39                    1        0.0015985 /_ -120.0 =  -0.00079926 +j -0.0013843
39                    2        0.0015985 /_  120.0 =  -0.00079924 +j 0.0013843
39                    3        0.0015985 /_    0.0 =  0.0015985 +j -1.4847E-008

ELEMENT = "Line.LINE_19"
2X19                  1        0.0016873 /_   60.0 =  0.00084365 +j 0.0014612
2X19                  2        0.0016873 /_  -60.0 =  0.00084364 +j -0.0014612
2X19                  3        0.0016873 /_  180.0 =  -0.0016873 +j 9.8173E-009
------------
17                    1        0.0015985 /_ -120.0 =  -0.00079925 +j -0.0013843
17                    2        0.0015985 /_  120.0 =  -0.00079923 +j 0.0013843
17                    3        0.0015985 /_    0.0 =  0.0015985 +j -9.4997E-009

ELEMENT = "Line.LINE_20"
17                    1       0.00026641 /_   60.0 =  0.00013321 +j 0.00023072
17                    2       0.00026641 /_  -60.0 =  0.00013321 +j -0.00023072
17                    3       0.00026641 /_  180.0 =  -0.00026641 +j 1.1937E-009
------------
18                    1       0.00017761 /_ -120.0 =  -8.8805E-005 +j -0.00015381
18                    2       0.00017761 /_  120.0 =  -8.8804E-005 +j 0.00015381
18                    3       0.00017761 /_    0.0 =  0.00017761 +j -8.0684E-010

ELEMENT = "Line.LINE_21"
18                    1       0.00017761 /_   60.0 =  8.8805E-005 +j 0.00015381
18                    2       0.00017761 /_  -60.0 =  8.8804E-005 +j -0.00015381
18                    3       0.00017761 /_  180.0 =  -0.00017761 +j 8.0684E-010
------------
19                    1      8.8804E-005 /_ -120.0 =  -4.4403E-005 +j -7.6907E-005
19                    2      8.8804E-005 /_  120.0 =  -4.4402E-005 +j 7.6907E-005
19                    3      8.8804E-005 /_    0.0 =  8.8804E-005 +j -4.0671E-010

ELEMENT = "Line.LINE_22"
19                    1      8.8804E-005 /_   60.0 =  4.4403E-005 +j 7.6907E-005
19                    2      8.8804E-005 /_  -60.0 =  4.4402E-005 +j -7.6907E-005
19                    3      8.8804E-005 /_  180.0 =  -8.8804E-005 +j 4.0663E-010
------------
20                    1      7.5532E-014 /_  138.8 =  -5.6843E-014 +j 4.9738E-014
20                    2      7.1409E-014 /_    5.7 =  7.1054E-014 +j 7.1054E-015
20                    3      8.0389E-014 /_  135.0 =  -5.6843E-014 +j 5.6843E-014

ELEMENT = "Line.LINE_23"
17                    1        0.0013321 /_   60.0 =  0.00066604 +j 0.0011536
17                    2        0.0013321 /_  -60.0 =  0.00066603 +j -0.0011536
17                    3        0.0013321 /_  180.0 =  -0.0013321 +j 8.3059E-009
------------
21                    1        0.0012433 /_ -120.0 =  -0.00062164 +j -0.0010767
21                    2        0.0012433 /_  120.0 =  -0.00062163 +j 0.0010767
21                    3        0.0012433 /_    0.0 =  0.0012433 +j -7.8794E-009

ELEMENT = "Line.LINE_24"
21                    1       0.00097685 /_   60.0 =  0.00048843 +j 0.00084598
21                    2       0.00097685 /_  -60.0 =  0.00048842 +j -0.00084598
21                    3       0.00097685 /_  180.0 =  -0.00097685 +j 6.3984E-009
------------
25                    1       0.00088805 /_ -120.0 =  -0.00044403 +j -0.00076907
25                    2       0.00088805 /_  120.0 =  -0.00044402 +j 0.00076908
25                    3       0.00088805 /_    0.0 =  0.00088805 +j -5.8893E-009

ELEMENT = "Line.LINE_25"
25                    1       0.00062163 /_   60.0 =  0.00031082 +j 0.00053835
25                    2       0.00062163 /_  -60.0 =  0.00031081 +j -0.00053835
25                    3       0.00062163 /_  180.0 =  -0.00062163 +j 4.2004E-009
------------
29                    1       0.00053283 /_ -120.0 =  -0.00026642 +j -0.00046144
29                    2       0.00053283 /_  120.0 =  -0.00026641 +j 0.00046145
29                    3       0.00053283 /_    0.0 =  0.00053283 +j -3.6353E-009

ELEMENT = "Line.LINE_26"
29                    1       0.00026641 /_   60.0 =  0.00013321 +j 0.00023072
29                    2       0.00026641 /_  -60.0 =  0.00013321 +j -0.00023072
29                    3       0.00026641 /_  180.0 =  -0.00026641 +j 1.8177E-009
------------
33                    1       0.00017761 /_ -120.0 =  -8.8806E-005 +j -0.00015381
33                    2       0.00017761 /_  120.0 =  -8.8804E-005 +j 0.00015382
33                    3       0.00017761 /_    0.0 =  0.00017761 +j -1.2228E-009

ELEMENT = "Line.LINE_27"
21                    1       0.00026641 /_   60.0 =  0.00013321 +j 0.00023072
21                    2       0.00026641 /_  -60.0 =  0.00013321 +j -0.00023072
21                    3       0.00026641 /_  180.0 =  -0.00026641 +j 1.4809E-009
------------
22                    1       0.00017761 /_ -120.0 =  -8.8806E-005 +j -0.00015381
22                    2       0.00017761 /_  120.0 =  -8.8804E-005 +j 0.00015381
22                    3       0.00017761 /_    0.0 =  0.00017761 +j -9.9826E-010

ELEMENT = "Line.LINE_28"
22                    1       0.00017761 /_   60.0 =  8.8806E-005 +j 0.00015381
22                    2       0.00017761 /_  -60.0 =  8.8804E-005 +j -0.00015381
22                    3       0.00017761 /_  180.0 =  -0.00017761 +j 9.9831E-010
------------
23                    1      8.8805E-005 /_ -120.0 =  -4.4403E-005 +j -7.6907E-005
23                    2      8.8805E-005 /_  120.0 =  -4.4402E-005 +j 7.6907E-005
23                    3      8.8805E-005 /_    0.0 =  8.8805E-005 +j -5.0247E-010

ELEMENT = "Line.LINE_29"
23                    1      8.8805E-005 /_   60.0 =  4.4403E-005 +j 7.6907E-005
23                    2      8.8805E-005 /_  -60.0 =  4.4402E-005 +j -7.6907E-005
23                    3      8.8805E-005 /_  180.0 =  -8.8805E-005 +j 5.0233E-010
------------
24                    1      4.9738E-014 /_  -90.0 =          0 +j -4.9738E-014
24                    2      9.0994E-014 /_  -51.3 =  5.6843E-014 +j -7.1054E-014
24                    3      1.7975E-013 /_  108.4 =  -5.6843E-014 +j 1.7053E-013

ELEMENT = "Line.LINE_30"
25                    1       0.00026641 /_   60.0 =  0.00013321 +j 0.00023072
25                    2       0.00026641 /_  -60.0 =  0.00013321 +j -0.00023072
25                    3       0.00026641 /_  180.0 =  -0.00026641 +j 1.6889E-009
------------
26                    1       0.00017761 /_ -120.0 =  -8.8806E-005 +j -0.00015381
26                    2       0.00017761 /_  120.0 =  -8.8804E-005 +j 0.00015382
26                    3       0.00017761 /_    0.0 =  0.00017761 +j -1.1369E-009

ELEMENT = "Line.LINE_31"
26                    1       0.00017761 /_   60.0 =  8.8806E-005 +j 0.00015381
26                    2       0.00017761 /_  -60.0 =  8.8804E-005 +j -0.00015382
26                    3       0.00017761 /_  180.0 =  -0.00017761 +j 1.1369E-009
------------
27                    1      8.8805E-005 /_ -120.0 =  -4.4403E-005 +j -7.6907E-005
27                    2      8.8805E-005 /_  120.0 =  -4.4402E-005 +j 7.6908E-005
27                    3      8.8805E-005 /_    0.0 =  8.8805E-005 +j -5.7173E-010

ELEMENT = "Line.LINE_32"
27                    1      8.8805E-005 /_   60.0 =  4.4403E-005 +j 7.6907E-005
27                    2      8.8805E-005 /_  -60.0 =  4.4402E-005 +j -7.6908E-005
27                    3      8.8805E-005 /_  180.0 =  -8.8805E-005 +j 5.7176E-010
------------
28                    1      6.5509E-014 /_  102.5 =  -1.4211E-014 +j 6.3949E-014
28                    2      4.5497E-014 /_  -51.3 =  2.8422E-014 +j -3.5527E-014
28                    3                0 /_    0.0 =          0 +j         0

ELEMENT = "Line.LINE_33"
29                    1       0.00026641 /_   60.0 =  0.00013321 +j 0.00023072
29                    2       0.00026641 /_  -60.0 =  0.00013321 +j -0.00023072
29                    3       0.00026641 /_  180.0 =  -0.00026641 +j 1.8177E-009
------------
30                    1       0.00017761 /_ -120.0 =  -8.8806E-005 +j -0.00015381
30                    2       0.00017761 /_  120.0 =  -8.8804E-005 +j 0.00015382
30                    3       0.00017761 /_    0.0 =  0.00017761 +j -1.2228E-009

ELEMENT = "Line.LINE_34"
30                    1       0.00017761 /_   60.0 =  8.8806E-005 +j 0.00015381
30                    2       0.00017761 /_  -60.0 =  8.8804E-005 +j -0.00015382
30                    3       0.00017761 /_  180.0 =  -0.00017761 +j 1.2227E-009
------------
31                    1      8.8805E-005 /_ -120.0 =  -4.4403E-005 +j -7.6907E-005
31                    2      8.8805E-005 /_  120.0 =  -4.4402E-005 +j 7.6908E-005
31                    3      8.8805E-005 /_    0.0 =  8.8805E-005 +j -6.1462E-010

ELEMENT = "Line.LINE_35"
31                    1      8.8805E-005 /_   60.0 =  4.4403E-005 +j 7.6907E-005
31                    2      8.8805E-005 /_  -60.0 =  4.4402E-005 +j -7.6908E-005
31                    3      8.8805E-005 /_  180.0 =  -8.8805E-005 +j 6.1468E-010
------------
32                    1       1.279E-013 /_   90.0 =          0 +j 1.279E-013
32                    2      5.7286E-014 /_  -60.3 =  2.8422E-014 +j -4.9738E-014
32                    3      8.0389E-014 /_  135.0 =  -5.6843E-014 +j 5.6843E-014

ELEMENT = "Line.LINE_36"
33                    1       0.00017761 /_   60.0 =  8.8806E-005 +j 0.00015381
33                    2       0.00017761 /_  -60.0 =  8.8804E-005 +j -0.00015382
33                    3       0.00017761 /_  180.0 =  -0.00017761 +j 1.2227E-009
------------
34                    1      8.8805E-005 /_ -120.0 =  -4.4403E-005 +j -7.6907E-005
34                    2      8.8805E-005 /_  120.0 =  -4.4402E-005 +j 7.6908E-005
34                    3      8.8805E-005 /_    0.0 =  8.8805E-005 +j -6.1462E-010

ELEMENT = "Line.LINE_37"
34                    1      8.8805E-005 /_   60.0 =  4.4403E-005 +j 7.6907E-005
34                    2      8.8805E-005 /_  -60.0 =  4.4402E-005 +j -7.6908E-005
34                    3      8.8805E-005 /_  180.0 =  -8.8805E-005 +j 6.1468E-010
------------
35                    1       1.279E-013 /_   90.0 =          0 +j 1.279E-013
35                    2      5.7286E-014 /_  -60.3 =  2.8422E-014 +j -4.9738E-014
35                    3      8.0389E-014 /_  135.0 =  -5.6843E-014 +j 5.6843E-014

ELEMENT = "Line.LINE_38"
39                    1        0.0015985 /_   60.0 =  0.00079926 +j 0.0013843
39                    2        0.0015985 /_  -60.0 =  0.00079924 +j -0.0013843
39                    3        0.0015985 /_  180.0 =  -0.0015985 +j 1.4847E-008
------------
38                    1        0.0015097 /_ -120.0 =  -0.00075486 +j -0.0013074
38                    2        0.0015097 /_  120.0 =  -0.00075483 +j 0.0013074
38                    3        0.0015097 /_    0.0 =  0.0015097 +j -1.4411E-008

ELEMENT = "Line.LINE_39"
38                    1        0.0015097 /_   60.0 =  0.00075486 +j 0.0013074
38                    2        0.0015097 /_  -60.0 =  0.00075483 +j -0.0013074
38                    3        0.0015097 /_  180.0 =  -0.0015097 +j 1.4411E-008
------------
37                    1        0.0014209 /_ -120.0 =  -0.00071046 +j -0.0012305
37                    2        0.0014209 /_  120.0 =  -0.00071043 +j 0.0012305
37                    3        0.0014209 /_    0.0 =  0.0014209 +j -1.3862E-008

ELEMENT = "Line.LINE_40"
37                    1        0.0014209 /_   60.0 =  0.00071046 +j 0.0012305
37                    2        0.0014209 /_  -60.0 =  0.00071043 +j -0.0012305
37                    3        0.0014209 /_  180.0 =  -0.0014209 +j 1.3862E-008
------------
36                    1        0.0013321 /_ -120.0 =  -0.00066605 +j -0.0011536
36                    2        0.0013321 /_  120.0 =  -0.00066603 +j 0.0011536
36                    3        0.0013321 /_    0.0 =  0.0013321 +j -1.3208E-008

ELEMENT = "Line.LINE_41"
36                    1        0.0013321 /_   60.0 =  0.00066605 +j 0.0011536
36                    2        0.0013321 /_  -60.0 =  0.00066603 +j -0.0011536
36                    3        0.0013321 /_  180.0 =  -0.0013321 +j 1.3208E-008
------------
40                    1        0.0012433 /_ -120.0 =  -0.00062165 +j -0.0010767
40                    2        0.0012433 /_  120.0 =  -0.00062163 +j 0.0010767
40                    3        0.0012433 /_    0.0 =  0.0012433 +j -1.2455E-008

ELEMENT = "Line.LINE_42"
40                    1       0.00097686 /_   60.0 =  0.00048844 +j 0.00084598
40                    2       0.00097686 /_  -60.0 =  0.00048842 +j -0.00084599
40                    3       0.00097686 /_  180.0 =  -0.00097686 +j 9.9933E-009
------------
44                    1       0.00088806 /_ -120.0 =  -0.00044404 +j -0.00076907
44                    2       0.00088806 /_  120.0 =  -0.00044402 +j 0.00076908
44                    3       0.00088806 /_    0.0 =  0.00088806 +j -9.1574E-009

ELEMENT = "Line.LINE_43"
44                    1       0.00062164 /_   60.0 =  0.00031083 +j 0.00053835
44                    2       0.00062164 /_  -60.0 =  0.00031081 +j -0.00053836
44                    3       0.00062164 /_  180.0 =  -0.00062164 +j 6.4881E-009
------------
48                    1       0.00053283 /_ -120.0 =  -0.00026642 +j -0.00046144
48                    2       0.00053283 /_  120.0 =  -0.00026641 +j 0.00046145
48                    3       0.00053283 /_    0.0 =  0.00053283 +j -5.5962E-009

ELEMENT = "Line.LINE_44"
48                    1       0.00026642 /_   60.0 =  0.00013321 +j 0.00023072
48                    2       0.00026642 /_  -60.0 =  0.00013321 +j -0.00023073
48                    3       0.00026642 /_  180.0 =  -0.00026642 +j 2.7981E-009
------------
52                    1       0.00017761 /_ -120.0 =  -8.8807E-005 +j -0.00015381
52                    2       0.00017761 /_  120.0 =  -8.8804E-005 +j 0.00015382
52                    3       0.00017761 /_    0.0 =  0.00017761 +j -1.8764E-009

ELEMENT = "Line.LINE_45"
40                    1       0.00026642 /_   60.0 =  0.00013321 +j 0.00023072
40                    2       0.00026642 /_  -60.0 =  0.00013321 +j -0.00023072
40                    3       0.00026642 /_  180.0 =  -0.00026642 +j 2.4614E-009
------------
41                    1       0.00017761 /_ -120.0 =  -8.8807E-005 +j -0.00015381
41                    2       0.00017761 /_  120.0 =  -8.8804E-005 +j 0.00015382
41                    3       0.00017761 /_    0.0 =  0.00017761 +j -1.6518E-009

ELEMENT = "Line.LINE_46"
41                    1       0.00017761 /_   60.0 =  8.8807E-005 +j 0.00015381
41                    2       0.00017761 /_  -60.0 =  8.8804E-005 +j -0.00015382
41                    3       0.00017761 /_  180.0 =  -0.00017761 +j 1.6519E-009
------------
42                    1      8.8805E-005 /_ -120.0 =  -4.4403E-005 +j -7.6907E-005
42                    2      8.8805E-005 /_  120.0 =  -4.4402E-005 +j 7.6908E-005
42                    3      8.8805E-005 /_    0.0 =  8.8805E-005 +j -8.2915E-010

ELEMENT = "Line.LINE_47"
42                    1      8.8805E-005 /_   60.0 =  4.4403E-005 +j 7.6907E-005
42                    2      8.8805E-005 /_  -60.0 =  4.4402E-005 +j -7.6908E-005
42                    3      8.8805E-005 /_  180.0 =  -8.8805E-005 +j 8.2923E-010
------------
43                    1      4.2633E-014 /_   90.0 =          0 +j 4.2633E-014
43                    2      1.2711E-013 /_ -153.4 =  -1.1369E-013 +j -5.6843E-014
43                    3      5.6843E-014 /_    0.0 =  5.6843E-014 +j         0

ELEMENT = "Line.LINE_48"
44                    1       0.00026642 /_   60.0 =  0.00013321 +j 0.00023072
44                    2       0.00026642 /_  -60.0 =  0.00013321 +j -0.00023072
44                    3       0.00026642 /_  180.0 =  -0.00026642 +j 2.6693E-009
------------
45                    1       0.00017761 /_ -120.0 =  -8.8807E-005 +j -0.00015381
45                    2       0.00017761 /_  120.0 =  -8.8804E-005 +j 0.00015382
45                    3       0.00017761 /_    0.0 =  0.00017761 +j -1.7906E-009

ELEMENT = "Line.LINE_49"
45                    1       0.00017761 /_   60.0 =  8.8807E-005 +j 0.00015381
45                    2       0.00017761 /_  -60.0 =  8.8804E-005 +j -0.00015382
45                    3       0.00017761 /_  180.0 =  -0.00017761 +j 1.7905E-009
------------
46                    1      8.8806E-005 /_ -120.0 =  -4.4404E-005 +j -7.6907E-005
46                    2      8.8806E-005 /_  120.0 =  -4.4402E-005 +j 7.6908E-005
46                    3      8.8806E-005 /_    0.0 =  8.8806E-005 +j -8.9855E-010

ELEMENT = "Line.LINE_50"
46                    1      8.8806E-005 /_   60.0 =  4.4404E-005 +j 7.6907E-005
46                    2      8.8806E-005 /_  -60.0 =  4.4402E-005 +j -7.6908E-005
46                    3      8.8806E-005 /_  180.0 =  -8.8806E-005 +j 8.9852E-010
------------
47                    1      7.2461E-014 /_  168.7 =  -7.1054E-014 +j 1.4211E-014
47                    2      2.5619E-014 /_  -56.3 =  1.4211E-014 +j -2.1316E-014
47                    3      2.8422E-014 /_   90.0 =          0 +j 2.8422E-014

ELEMENT = "Line.LINE_51"
52                    1       0.00017761 /_   60.0 =  8.8807E-005 +j 0.00015381
52                    2       0.00017761 /_  -60.0 =  8.8804E-005 +j -0.00015382
52                    3       0.00017761 /_  180.0 =  -0.00017761 +j 1.8763E-009
------------
53                    1      8.8806E-005 /_ -120.0 =  -4.4404E-005 +j -7.6907E-005
53                    2      8.8806E-005 /_  120.0 =  -4.4402E-005 +j 7.6908E-005
53                    3      8.8806E-005 /_    0.0 =  8.8806E-005 +j -9.4141E-010

ELEMENT = "Line.LINE_52"
53                    1      8.8806E-005 /_   60.0 =  4.4404E-005 +j 7.6907E-005
53                    2      8.8806E-005 /_  -60.0 =  4.4402E-005 +j -7.6908E-005
53                    3      8.8806E-005 /_  180.0 =  -8.8806E-005 +j 9.415E-010
------------
54                    1      1.1457E-013 /_   97.1 =  -1.4211E-014 +j 1.1369E-013
54                    2      1.3996E-013 /_  -24.0 =  1.279E-013 +j -5.6843E-014
54                    3      8.0389E-014 /_  135.0 =  -5.6843E-014 +j 5.6843E-014

ELEMENT = "Line.LINE_53"
48                    1       0.00026642 /_   60.0 =  0.00013321 +j 0.00023072
48                    2       0.00026642 /_  -60.0 =  0.00013321 +j -0.00023073
48                    3       0.00026642 /_  180.0 =  -0.00026642 +j 2.7981E-009
------------
49                    1       0.00017761 /_ -120.0 =  -8.8807E-005 +j -0.00015381
49                    2       0.00017761 /_  120.0 =  -8.8804E-005 +j 0.00015382
49                    3       0.00017761 /_    0.0 =  0.00017761 +j -1.8764E-009

ELEMENT = "Line.LINE_54"
49                    1       0.00017761 /_   60.0 =  8.8807E-005 +j 0.00015381
49                    2       0.00017761 /_  -60.0 =  8.8804E-005 +j -0.00015382
49                    3       0.00017761 /_  180.0 =  -0.00017761 +j 1.8763E-009
------------
50                    1      8.8806E-005 /_ -120.0 =  -4.4404E-005 +j -7.6907E-005
50                    2      8.8806E-005 /_  120.0 =  -4.4402E-005 +j 7.6908E-005
50                    3      8.8806E-005 /_    0.0 =  8.8806E-005 +j -9.4141E-010

ELEMENT = "Line.LINE_55"
50                    1      8.8806E-005 /_   60.0 =  4.4404E-005 +j 7.6907E-005
50                    2      8.8806E-005 /_  -60.0 =  4.4402E-005 +j -7.6908E-005
50                    3      8.8806E-005 /_  180.0 =  -8.8806E-005 +j 9.415E-010
------------
51                    1      1.1457E-013 /_   97.1 =  -1.4211E-014 +j 1.1369E-013
51                    2      1.3996E-013 /_  -24.0 =  1.279E-013 +j -5.6843E-014
51                    3      8.0389E-014 /_  135.0 =  -5.6843E-014 +j 5.6843E-014

ELEMENT = "Transformer.T0"
UTILITY_COMPANY       1      7.8795E-006 /_  -90.0 =  3.1792E-010 +j -7.8795E-006
UTILITY_COMPANY       2      7.8795E-006 /_  150.0 =  -6.824E-006 +j 3.9395E-006
UTILITY_COMPANY       3      7.8795E-006 /_   30.0 =  6.8237E-006 +j 3.94E-006
UTILITY_COMPANY       0      1.2711E-013 /_ -153.4 =  -1.1369E-013 +j -5.6843E-014
------------
MAIN_SWITCH_PANEL     1        0.0017998 /_  -90.0 =  -1.1478E-008 +j -0.0017998
MAIN_SWITCH_PANEL     2        0.0017998 /_  150.0 =  -0.0015587 +j 0.00089993
MAIN_SWITCH_PANEL     3        0.0017998 /_   30.0 =  0.0015587 +j 0.00089991
MAIN_SWITCH_PANEL     0       3.638E-012 /_  180.0 =  -3.638E-012 +j         0

ELEMENT = "Transformer.T1"
MAIN_SWITCH_PANEL     1        0.0018554 /_   90.0 =  1.1475E-008 +j 0.0018554
MAIN_SWITCH_PANEL     2        0.0018554 /_  -30.0 =  0.0016068 +j -0.0009277
MAIN_SWITCH_PANEL     3        0.0018554 /_ -150.0 =  -0.0016068 +j -0.00092768
MAIN_SWITCH_PANEL     0                0 /_    0.0 =          0 +j         0
------------
SWITCH_PANEL_1        1        0.0048843 /_ -120.0 =  -0.0024422 +j -0.0042299
SWITCH_PANEL_1        2        0.0048843 /_  120.0 =  -0.0024421 +j 0.0042299
SWITCH_PANEL_1        3        0.0048843 /_    0.0 =  0.0048843 +j -2.6496E-008
SWITCH_PANEL_1        0      2.4933E-012 /_  136.8 =  -1.819E-012 +j 1.7053E-012

ELEMENT = "Transformer.T2"
MAIN_SWITCH_PANEL     1       0.00026054 /_  -90.0 =  -2.2737E-013 +j -0.00026054
MAIN_SWITCH_PANEL     2       0.00026054 /_  150.0 =  -0.00022563 +j 0.00013027
MAIN_SWITCH_PANEL     3       0.00026054 /_   30.0 =  0.00022563 +j 0.00013027
MAIN_SWITCH_PANEL     0                0 /_    0.0 =          0 +j         0
------------
SWITCH_PANEL_2        1      3.7499E-012 /_   76.0 =  9.0949E-013 +j 3.638E-012
SWITCH_PANEL_2        2      2.0337E-012 /_  -63.4 =  9.0949E-013 +j -1.819E-012
SWITCH_PANEL_2        3      1.8507E-012 /_ -169.4 =  -1.819E-012 +j -3.4106E-013
SWITCH_PANEL_2        0      1.1369E-012 /_  -90.0 =          0 +j -1.1369E-012

= = = = = = = = = = = = = = = = = = =  = = = = = = = = = = =  = =

Power Conversion Elements

  Bus             Phase    Magnitude, A     Angle      (Real)   +j  (Imag)

ELEMENT = "Load.DCFC"
DCFC                  1                0 /_    0.0 =          0 +j         0
DCFC                  2                0 /_    0.0 =          0 +j         0
DCFC                  3                0 /_    0.0 =          0 +j         0
DCFC                  0                0 /_    0.0 =          0 +j         0

ELEMENT = "Load.SWITCH_PANEL_2"
SWITCH_PANEL_2        1                0 /_    0.0 =          0 +j         0
SWITCH_PANEL_2        2                0 /_    0.0 =          0 +j         0
SWITCH_PANEL_2        3                0 /_    0.0 =          0 +j         0

ELEMENT = "Load.CA-148"
1                     1                0 /_    0.0 =          0 +j         0
1                     2                0 /_    0.0 =          0 +j         0

ELEMENT = "Load.CA-149"
2                     1                0 /_    0.0 =          0 +j         0
2                     2                0 /_    0.0 =          0 +j         0

ELEMENT = "Load.CA-212"
3                     1                0 /_    0.0 =          0 +j         0
3                     2                0 /_    0.0 =          0 +j         0

ELEMENT = "Load.CA-213"
4                     1                0 /_    0.0 =          0 +j         0
4                     2                0 /_    0.0 =          0 +j         0

ELEMENT = "Load.CA-303"
5                     1                0 /_    0.0 =          0 +j         0
5                     2                0 /_    0.0 =          0 +j         0

ELEMENT = "Load.CA-304"
6                     1                0 /_    0.0 =          0 +j         0
6                     2                0 /_    0.0 =          0 +j         0

ELEMENT = "Load.CA-305"
7                     1                0 /_    0.0 =          0 +j         0
7                     2                0 /_    0.0 =          0 +j         0

ELEMENT = "Load.CA-306"
8                     1                0 /_    0.0 =          0 +j         0
8                     2                0 /_    0.0 =          0 +j         0

ELEMENT = "Load.CA-307"
9                     1                0 /_    0.0 =          0 +j         0
9                     2                0 /_    0.0 =          0 +j         0

ELEMENT = "Load.CA-308"
10                    1                0 /_    0.0 =          0 +j         0
10                    2                0 /_    0.0 =          0 +j         0

ELEMENT = "Load.CA-309"
11                    1                0 /_    0.0 =          0 +j         0
11                    2                0 /_    0.0 =          0 +j         0

ELEMENT = "Load.CA-310"
12                    1                0 /_    0.0 =          0 +j         0
12                    2                0 /_    0.0 =          0 +j         0

ELEMENT = "Load.CA-311"
13                    1                0 /_    0.0 =          0 +j         0
13                    2                0 /_    0.0 =          0 +j         0

ELEMENT = "Load.CA-312"
14                    1                0 /_    0.0 =          0 +j         0
14                    2                0 /_    0.0 =          0 +j         0

ELEMENT = "Load.CA-313"
15                    1                0 /_    0.0 =          0 +j         0
15                    2                0 /_    0.0 =          0 +j         0

ELEMENT = "Load.CA-314"
16                    1                0 /_    0.0 =          0 +j         0
16                    2                0 /_    0.0 =          0 +j         0

ELEMENT = "Load.CA-315"
17                    1                0 /_    0.0 =          0 +j         0
17                    2                0 /_    0.0 =          0 +j         0

ELEMENT = "Load.CA-316"
18                    1                0 /_    0.0 =          0 +j         0
18                    2                0 /_    0.0 =          0 +j         0

ELEMENT = "Load.CA-317"
19                    1                0 /_    0.0 =          0 +j         0
19                    2                0 /_    0.0 =          0 +j         0

ELEMENT = "Load.CA-318"
20                    1                0 /_    0.0 =          0 +j         0
20                    2                0 /_    0.0 =          0 +j         0

ELEMENT = "Load.CA-319"
21                    1                0 /_    0.0 =          0 +j         0
21                    2                0 /_    0.0 =          0 +j         0

ELEMENT = "Load.CA-320"
22                    1                0 /_    0.0 =          0 +j         0
22                    2                0 /_    0.0 =          0 +j         0

ELEMENT = "Load.CA-321"
23                    1                0 /_    0.0 =          0 +j         0
23                    2                0 /_    0.0 =          0 +j         0

ELEMENT = "Load.CA-322"
24                    1                0 /_    0.0 =          0 +j         0
24                    2                0 /_    0.0 =          0 +j         0

ELEMENT = "Load.CA-323"
25                    2                0 /_    0.0 =          0 +j         0
25                    3                0 /_    0.0 =          0 +j         0

ELEMENT = "Load.CA-324"
26                    2                0 /_    0.0 =          0 +j         0
26                    3                0 /_    0.0 =          0 +j         0

ELEMENT = "Load.CA-325"
27                    2                0 /_    0.0 =          0 +j         0
27                    3                0 /_    0.0 =          0 +j         0

ELEMENT = "Load.CA-326"
28                    2                0 /_    0.0 =          0 +j         0
28                    3                0 /_    0.0 =          0 +j         0

ELEMENT = "Load.CA-327"
29                    2                0 /_    0.0 =          0 +j         0
29                    3                0 /_    0.0 =          0 +j         0

ELEMENT = "Load.CA-489"
30                    2                0 /_    0.0 =          0 +j         0
30                    3                0 /_    0.0 =          0 +j         0

ELEMENT = "Load.CA-490"
31                    2                0 /_    0.0 =          0 +j         0
31                    3                0 /_    0.0 =          0 +j         0

ELEMENT = "Load.CA-491"
32                    2                0 /_    0.0 =          0 +j         0
32                    3                0 /_    0.0 =          0 +j         0

ELEMENT = "Load.CA-492"
33                    2                0 /_    0.0 =          0 +j         0
33                    3                0 /_    0.0 =          0 +j         0

ELEMENT = "Load.CA-493"
34                    2                0 /_    0.0 =          0 +j         0
34                    3                0 /_    0.0 =          0 +j         0

ELEMENT = "Load.CA-494"
35                    2                0 /_    0.0 =          0 +j         0
35                    3                0 /_    0.0 =          0 +j         0

ELEMENT = "Load.CA-495"
36                    2                0 /_    0.0 =          0 +j         0
36                    3                0 /_    0.0 =          0 +j         0

ELEMENT = "Load.CA-496"
37                    2                0 /_    0.0 =          0 +j         0
37                    3                0 /_    0.0 =          0 +j         0

ELEMENT = "Load.CA-497"
38                    2                0 /_    0.0 =          0 +j         0
38                    3                0 /_    0.0 =          0 +j         0

ELEMENT = "Load.CA-498"
39                    1                0 /_    0.0 =          0 +j         0
39                    3                0 /_    0.0 =          0 +j         0

ELEMENT = "Load.CA-499"
40                    1                0 /_    0.0 =          0 +j         0
40                    3                0 /_    0.0 =          0 +j         0

ELEMENT = "Load.CA-500"
41                    1                0 /_    0.0 =          0 +j         0
41                    3                0 /_    0.0 =          0 +j         0

ELEMENT = "Load.CA-501"
42                    1                0 /_    0.0 =          0 +j         0
42                    3                0 /_    0.0 =          0 +j         0

ELEMENT = "Load.CA-502"
43                    1                0 /_    0.0 =          0 +j         0
43                    3                0 /_    0.0 =          0 +j         0

ELEMENT = "Load.CA-503"
44                    1                0 /_    0.0 =          0 +j         0
44                    3                0 /_    0.0 =          0 +j         0

ELEMENT = "Load.CA-504"
45                    1                0 /_    0.0 =          0 +j         0
45                    3                0 /_    0.0 =          0 +j         0

ELEMENT = "Load.CA-505"
46                    1                0 /_    0.0 =          0 +j         0
46                    3                0 /_    0.0 =          0 +j         0

ELEMENT = "Load.CA-506"
47                    1                0 /_    0.0 =          0 +j         0
47                    3                0 /_    0.0 =          0 +j         0

ELEMENT = "Load.CA-507"
48                    1                0 /_    0.0 =          0 +j         0
48                    3                0 /_    0.0 =          0 +j         0

ELEMENT = "Load.CA-508"
49                    1                0 /_    0.0 =          0 +j         0
49                    3                0 /_    0.0 =          0 +j         0

ELEMENT = "Load.CA-509"
50                    1                0 /_    0.0 =          0 +j         0
50                    3                0 /_    0.0 =          0 +j         0

ELEMENT = "Load.CA-510"
51                    1                0 /_    0.0 =          0 +j         0
51                    3                0 /_    0.0 =          0 +j         0

ELEMENT = "Load.CA-511"
52                    1                0 /_    0.0 =          0 +j         0
52                    3                0 /_    0.0 =          0 +j         0

ELEMENT = "Load.CA-512"
53                    1                0 /_    0.0 =          0 +j         0
53                    3                0 /_    0.0 =          0 +j         0

ELEMENT = "Load.CA-513"
54                    1                0 /_    0.0 =          0 +j         0
54                    3                0 /_    0.0 =          0 +j         0

